Version 4
SHEET 1 1328 680
WIRE 1088 -16 896 -16
WIRE 64 32 16 32
WIRE 320 32 144 32
WIRE 896 48 896 -16
WIRE 960 48 896 48
WIRE 1088 64 1088 -16
WIRE 1088 64 1024 64
WIRE 1152 64 1088 64
WIRE 1168 64 1152 64
WIRE 1280 64 1216 64
WIRE 16 80 16 32
WIRE 16 80 -64 80
WIRE 320 80 320 32
WIRE 448 80 320 80
WIRE 640 80 448 80
WIRE 864 80 640 80
WIRE 960 80 864 80
WIRE 1280 144 1280 64
WIRE 1280 160 1280 144
WIRE 16 176 16 80
WIRE 64 176 16 176
WIRE 320 176 320 80
WIRE 320 176 128 176
WIRE -64 208 -64 80
WIRE 640 208 640 80
WIRE 448 224 448 80
WIRE 864 224 864 80
WIRE -64 368 -64 288
WIRE 352 368 -64 368
WIRE 448 368 448 304
WIRE 448 368 352 368
WIRE 640 368 640 272
WIRE 640 368 448 368
WIRE 864 368 864 304
WIRE 864 368 640 368
WIRE 1280 368 1280 208
WIRE 1280 368 864 368
WIRE 352 416 352 368
FLAG 352 416 0
SYMBOL ind 48 48 R270
WINDOW 0 32 56 VTop 2
WINDOW 3 5 56 VBottom 2
SYMATTR InstName L1
SYMATTR Value {La}
SYMBOL cap 128 160 R90
WINDOW 0 0 32 VBottom 2
WINDOW 3 32 32 VTop 2
SYMATTR InstName C1
SYMATTR Value {Ca}
SYMBOL res 432 208 R0
SYMATTR InstName R2
SYMATTR Value {Rb}
SYMBOL Misc\\signal -64 192 R0
WINDOW 123 24 132 Left 2
WINDOW 39 0 0 Left 0
SYMATTR Value2 AC 1
SYMATTR InstName V1
SYMBOL cap 624 208 R0
SYMATTR InstName C2
SYMATTR Value {Cb}
SYMBOL ind 848 208 R0
SYMATTR InstName L2
SYMATTR Value {Lb}
SYMBOL OpAmps\\opamp 992 0 R0
SYMATTR InstName U1
SYMBOL cap 1216 48 R90
WINDOW 0 0 32 VBottom 2
WINDOW 3 32 32 VTop 2
SYMATTR InstName C3
SYMATTR Value 0.5
SYMBOL cap 1264 144 R0
SYMATTR InstName C4
SYMATTR Value 0.5
TEXT -24 480 Left 2 !.param Ra={R/a} Rb={R/(1-a)}
TEXT -24 544 Left 2 !.param La={L/b} Lb={L/(1-b)}
TEXT -24 600 Left 2 !.param Ca={C*d} Cb={C*(1-d)}
TEXT -24 440 Left 2 !.param a=0 b=2 d=1
TEXT -24 408 Left 2 !.param C=0.707 R=1 L=1.414
TEXT -96 624 Left 2 !.ac dec 100 0.001 20
TEXT 872 480 Left 2 !.inc opamp.sub
